   57
 
Au      0.861750   -4.483750   -1.567260
Au     -1.726250   -2.988750   -1.567260
Au      3.450750   -2.988750   -1.567260
Au     -4.315250   -1.494750   -1.567260
Au      0.861750   -1.494750   -1.567260
Au     -1.726250    0.000250   -1.567260
Au      3.450750    0.000250   -1.567260
Au     -4.315250    1.494250   -1.567260
Au      0.861750    1.494250   -1.567260
Au     -1.726250    2.989250   -1.567260
Au      3.450750    2.989250   -1.567260
Au      0.861750    4.483250   -1.567260
Au     -0.221471   -3.190499    0.844022
Au     -2.686463   -1.567350    0.723296
Au      2.808713   -1.425196    0.751988
Au     -0.005075   -0.038051    0.707933
Au     -2.636871    1.598773    0.737735
Au      2.645917    1.536352    0.744101
Au     -0.016627    3.128209    0.735706
Au     -1.101990   -1.377343    2.948862
Au      1.778157   -0.007582    2.907437
Au     -0.862943    1.634772    2.890269
Au      0.007968    0.083101    5.037713
C       0.478406   -4.626797    6.188625
C       0.103374   -6.006132    6.190395
C       0.189920   -6.781237    5.015223
C       0.657387   -6.200335    3.815464
C       0.951033   -4.029945    4.980786
C       1.034559   -4.830751    3.827350
C       0.773560   -6.850954    2.448629
C       1.809785   -6.033575    1.661117
H      -0.252879   -6.462569    7.135138
H      -0.108763   -7.850048    5.037100
H       1.251032   -2.962880    4.968393
S       1.638905   -4.274977    2.226355
H       1.659018   -6.038237    0.554229
H       2.855112   -6.340785    1.901797
H      -0.220000   -6.808766    1.930790
H       1.074372   -7.924574    2.511333
C       0.363242   -3.203995    8.457962
C       0.409758   -3.854377    7.399810
C       0.316213   -2.464787    9.692247
C       0.433438   -1.042639    9.685115
C       0.389833   -0.319669   10.896805
C       0.241259   -0.998025   12.124855
C       0.174585   -3.160394   10.931794
C       0.142118   -2.419367   12.130514
C       0.097337   -0.386678   13.508069
C       0.484308   -1.483559   14.517285
H       0.557544   -0.514842    8.718231
H       0.470079    0.787433   10.879685
H       0.102992   -4.266491   10.935775
S      -0.038579   -3.095481   13.771878
H      -0.019499   -1.370242   15.504282
H       1.588825   -1.517255   14.675933
H      -0.970052   -0.080685   13.663246
H       0.727551    0.526326   13.638517
