51

Au         0.86175       -4.48375       -1.56726
Au        -1.72625       -2.98875       -1.56726
Au         3.45075       -2.98875       -1.56726
Au        -4.31525       -1.49475       -1.56726
Au         0.86175       -1.49475       -1.56726
Au        -1.72625        0.00025       -1.56726
Au         3.45075        0.00025       -1.56726
Au        -4.31525        1.49425       -1.56726
Au         0.86175        1.49425       -1.56726
Au        -1.72625        2.98925       -1.56726
Au         3.45075        2.98925       -1.56726
Au         0.86175        4.48325       -1.56726
Au        -0.02429       -3.06343        0.74606
Au        -2.64159       -1.57233        0.74534
Au         2.67705       -1.52042        0.73762
Au         0.00660        0.01518        0.72024
Au        -2.63834        1.54422        0.74396
Au         2.71531        1.49986        0.73325
Au        -0.04880        3.11621        0.72054
Au        -0.88696       -1.51741        2.92224
Au         1.81815       -0.00706        2.91191
Au        -0.86156        1.61772        2.91010
Au         0.01709        0.04434        5.02538
C          1.95115        1.39218       10.85203
C          2.54357        0.35781       10.05963
C          1.85905       -0.20933        8.97197
C          0.54913        0.23473        8.62136
C          0.61780        1.79410       10.52850
C         -0.07149        1.22502        9.44279
H          3.57056        0.01686       10.30055
H          2.34997       -0.99582        8.36169
H          0.12909        2.58242       11.13565
C          3.37312        2.68866       12.71737
C          2.69838        2.05687       11.88415
C          4.16534        3.45625       13.63805
C          3.62937        4.61416       14.28028
C          4.41615        5.39684       15.14077
C          5.77622        5.05740       15.39684
C          5.52443        3.11168       13.91151
C          6.31134        3.89279       14.77326
H          2.57742        4.90355       14.08314
H          3.97647        6.29553       15.62174
H          5.96441        2.21798       13.42456
N         -0.08501       -0.24055        7.47786
H         -1.09507        1.57503        9.19357
N          6.54918        5.81549       16.28257
H          7.36605        3.60471       14.96637
H          6.24386        6.78220       16.42650
H          7.56372        5.73996       16.16684
H         -1.11187       -0.15931        7.45809
H          0.22761       -1.15534        7.12463
